**
** ABAQUS Input Deck Generated by HyperMesh Version  : 14.0.0.88
** Generated using HyperMesh-Abaqus Template Version : 14.0
**
**   Template:  ABAQUS/STANDARD 3D
**
*NODE
         1,  1000.0         ,  250.0          ,  0.0            
         2,  987.5          ,  250.0          ,  0.0            
         3,  975.0          ,  250.0          ,  0.0            
         4,  962.5          ,  250.0          ,  0.0            
         5,  950.0          ,  250.0          ,  0.0            
         6,  937.5          ,  250.0          ,  0.0            
         7,  925.0          ,  250.0          ,  0.0            
         8,  912.5          ,  250.0          ,  0.0            
         9,  900.0          ,  250.0          ,  0.0            
        10,  887.5          ,  250.0          ,  0.0            
        11,  875.0          ,  250.0          ,  0.0            
        12,  862.5          ,  250.0          ,  0.0            
        13,  850.0          ,  250.0          ,  0.0            
        14,  837.5          ,  250.0          ,  0.0            
        15,  825.0          ,  250.0          ,  0.0            
        16,  812.5          ,  250.0          ,  0.0            
        17,  800.0          ,  250.0          ,  0.0            
        18,  787.5          ,  250.0          ,  0.0            
        19,  775.0          ,  250.0          ,  0.0            
        20,  762.5          ,  250.0          ,  0.0            
** ... 5731 like lines cut
**HWCOLOR COMP          4     6
*ELEMENT,TYPE=B31,ELSET=JOINT
      5441,      3577,      5836
      5442,      3582,      5841
      5443,      3587,      5846
      5444,      3600,      5859
      5445,      3645,      5904
      5446,      3682,      5941
      5447,      3695,      5954
      5448,      3740,      5999
      5449,      3777,      6036
      5450,      3782,      6041
      5451,      3795,      6054
      5452,      3840,      6099
      5453,      3877,      6136
      5454,      3890,      6149
      5455,      3935,      6194
      5456,      6036,      3777
      5457,      3091,      5431
      5458,      3096,      5436
      5459,      3101,      5441
      5460,      3114,      5454
** ... 44 like lines cut
**HWCOLOR COMP          1     3
*ELEMENT,TYPE=S4R,ELSET=WEB
         1,       284,       285,       280,       281
         2,       285,       276,       277,       280
         3,       269,       270,       285,       284
         4,       270,       271,       276,       285
         5,       281,       282,       286,       284
         6,       284,       286,       268,       269
         7,       282,       283,       287,       286
         8,       286,       287,       267,       268
         9,       283,       260,       261,       287
        10,       287,       261,       262,       267
        11,       288,       290,       244,       245
        12,       290,       279,       243,       244
        13,       281,       280,       291,       289
        14,       289,       291,       290,       288
        15,       280,       277,       278,       291
        16,       291,       278,       279,       290
        17,       258,       292,       247,       248
        18,       292,       293,       246,       247
        19,       293,       288,       245,       246
        20,       260,       283,       294,       259
** ... 1580 like lines cut
**HWCOLOR COMP          2     4
*ELEMENT,TYPE=S4R,ELSET=FLANGE
      1601,      1825,      1826,      1821,      1822
      1602,      1826,      1817,      1818,      1821
      1603,      1810,      1811,      1826,      1825
      1604,      1811,      1812,      1817,      1826
      1605,      1822,      1823,      1827,      1825
      1606,      1825,      1827,      1809,      1810
      1607,      1806,      1828,      1824,      1805
      1608,      1828,      1827,      1823,      1824
      1609,      1807,      1808,      1828,      1806
      1610,      1808,      1809,      1827,      1828
      1611,      1829,      1831,        67,        68
      1612,      1831,      1820,        66,        67
      1613,      1830,      1832,      1831,      1829
      1614,      1832,      1819,      1820,      1831
      1615,      1822,      1821,      1832,      1830
      1616,      1821,      1818,      1819,      1832
      1617,        68,        69,      1833,      1829
      1618,      1829,      1833,      1834,      1830
      1619,      1830,      1834,      1823,      1822
      1620,      1803,      1835,        70,        71
** ... 1900 like lines cut
**HWCOLOR COMP          3     5
*ELEMENT,TYPE=S4R,ELSET=SKIN
      3521,      4408,      4409,      4404,      4405
      3522,      4409,      4400,      4401,      4404
      3523,      4393,      4394,      4409,      4408
      3524,      4394,      4395,      4400,      4409
      3525,      4405,      4406,      4410,      4408
      3526,      4408,      4410,      4392,      4393
      3527,      4389,      4411,      4407,      4388
      3528,      4411,      4410,      4406,      4407
      3529,      4390,      4391,      4411,      4389
      3530,      4391,      4392,      4410,      4411
      3531,      4412,      4414,      4351,      4352
      3532,      4414,      4403,      4350,      4351
      3533,      4413,      4415,      4414,      4412
      3534,      4415,      4402,      4403,      4414
      3535,      4405,      4404,      4415,      4413
      3536,      4404,      4401,      4402,      4415
      3537,      4352,      4353,      4416,      4412
      3538,      4412,      4416,      4417,      4413
      3539,      4413,      4417,      4406,      4405
      3540,      4386,      4418,      4354,      4355
** ... 1900 like lines cut
**HM_PROP_ID          1
**HM_comp_by_property "SHELL"    18
*SHELL SECTION, ELSET=WEB, MATERIAL=Nylon
100.0     ,
**HM_PROP_ID          1
**HM_comp_by_property "SHELL"    18
*SHELL SECTION, ELSET=FLANGE, MATERIAL=Nylon
100.0     ,
**HM_PROP_ID          1
**HM_comp_by_property "SHELL"    18
*SHELL SECTION, ELSET=SKIN, MATERIAL=Nylon
100.0     ,
**HM_PROP_ID          2
**HM_comp_by_property "PJOINT"     7
**HMBEAMSEC ASSOC                      2               1
*BEAM SECTION, ELSET=JOINT, MATERIAL= Nylon, SECTION=CIRC
1.0       ,
**HMNAME BEAMSECTCOL          1 BEAM
**HMNAME BEAMSECTS
**HMCONT               1               1circle_section.1
**HMCONT       2       7       1       01.0     1.0     0.0     0.0     0.0     
**HMCONT0.0            2
**HMNAME BEAMSECTS  BEAMSECTIONSTANDARD       11       1       0CIRC
**HMNAME BEAMSECTS  BEAMSECTIONSTANDARD  PARAMETERS     1.0     10.0    10.0    
**HMNAME BEAMSECTS  END
*NSET, NSET=joint
      3577,      3582,      3587,      3600,      3645,      3682,      3695,      3740,
      3777,      3782,      3795,      3840,      3877,      3890,      3935,      6036
**HMNAME MATS          1 Nylon     3
*MATERIAL, NAME=Nylon
*ELASTIC, TYPE = ISOTROPIC
3000.0    ,0.4       ,0.0       
**HMNAME LOADSTEP          1 LOAD
*STEP
*STATIC
**HWNAME LOADCOL          1 auto1
**HWCOLOR LOADCOL          1    17
*BOUNDARY
        81,1,6,0.0
        82,1,6,0.0
        83,1,6,0.0
        84,1,6,0.0
        85,1,6,0.0
        86,1,6,0.0
        87,1,6,0.0
        88,1,6,0.0
        89,1,6,0.0
        90,1,6,0.0
        91,1,6,0.0
        92,1,6,0.0
        93,1,6,0.0
        94,1,6,0.0
        95,1,6,0.0
        96,1,6,0.0
        97,1,6,0.0
        98,1,6,0.0
        99,1,6,0.0
       100,1,6,0.0
** ... 25 like lines cut
*CLOAD
       191,2,-10000.0       
*END STEP
*****
