**
** ABAQUS Input Deck Generated by HyperMesh Version  : 14.0.0.88
** Generated using HyperMesh-Abaqus Template Version : 14.0
**
**   Template:  ABAQUS/STANDARD 2D
**
*NODE
         1,  1000.0         ,  250.0          
         2,  987.5          ,  250.0          
         3,  975.0          ,  250.0          
         4,  962.5          ,  250.0          
         5,  950.0          ,  250.0          
         6,  937.5          ,  250.0          
         7,  925.0          ,  250.0          
         8,  912.5          ,  250.0          
         9,  900.0          ,  250.0          
        10,  887.5          ,  250.0          
        11,  875.0          ,  250.0          
        12,  862.5          ,  250.0          
        13,  850.0          ,  250.0          
        14,  837.5          ,  250.0          
        15,  825.0          ,  250.0          
        16,  812.5          ,  250.0          
        17,  800.0          ,  250.0          
        18,  787.5          ,  250.0          
        19,  775.0          ,  250.0          
        20,  762.5          ,  250.0          
** ... 1681 like lines cut
**HWCOLOR COMP          1     3
*ELEMENT,TYPE=CAX4H,ELSET=auto1
         1,       284,       285,       280,       281
         2,       285,       276,       277,       280
         3,       269,       270,       285,       284
         4,       270,       271,       276,       285
         5,       281,       282,       286,       284
         6,       284,       286,       268,       269
         7,       282,       283,       287,       286
         8,       286,       287,       267,       268
         9,       283,       260,       261,       287
        10,       287,       261,       262,       267
        11,       288,       290,       244,       245
        12,       290,       279,       243,       244
        13,       281,       280,       291,       289
        14,       289,       291,       290,       288
        15,       280,       277,       278,       291
        16,       291,       278,       279,       290
        17,       258,       292,       247,       248
        18,       292,       293,       246,       247
        19,       293,       288,       245,       246
        20,       260,       283,       294,       259
** ... 1580 like lines cut
**HMNAME MATS          1 Nylon     3
*MATERIAL, NAME=Nylon
*ELASTIC, TYPE = ISOTROPIC
3000.0    ,0.4       ,0.0       
