**
** ABAQUS Input Deck Generated by HyperMesh Version  : 11.0.0.47
** Generated using HyperMesh-Abaqus Template Version : 11.0.0.47
**
**   Template:  ABAQUS/STANDARD 2D
**
*NODE
         1,  0.0            ,  225.0          
         2,  0.0            ,  212.5          
         3,  0.0            ,  200.0          
         4,  0.0            ,  187.5          
         5,  0.0            ,  175.0          
         6,  0.0            ,  162.5          
         7,  0.0            ,  150.0          
         8,  0.0            ,  137.5          
         9,  0.0            ,  125.0          
        10,  0.0            ,  112.5          
        11,  0.0            ,  100.0          
        12,  0.0            ,  87.5           
        13,  0.0            ,  75.0           
        14,  0.0            ,  62.5           
        15,  0.0            ,  50.0           
        16,  0.0            ,  37.5           
        17,  0.0            ,  25.0           
        18,  0.0            ,  12.5           
        19,  0.0            ,  0.0            
        20,  12.5           ,  0.0            
** ... 3382 like lines cut
**HWCOLOR COMP          3     2
*ELEMENT,TYPE=SPRING2,ELSET=BOLT_D1
     10000,    100076,    100244
     10001,    100066,    100243
     10002,    100056,    100245
     10003,    100046,    100246
     10004,    100036,    100248
     10005,    100026,    100247
     10006,    100016,    100249
**HWCOLOR COMP          4     7
*ELEMENT,TYPE=SPRING2,ELSET=BOLT_D2
     10007,    100076,    100244
     10008,    100066,    100243
     10009,    100056,    100245
     10010,    100046,    100246
     10011,    100036,    100248
     10012,    100026,    100247
     10013,    100016,    100249
     10014,    100005,    100325
**HWCOLOR COMP          5     4
*ELEMENT,TYPE=CPS4R,ELSET=nondesign
     10015,    100072,    100093,    100095,    100071
     10016,    100071,    100095,    100092,    100070
     10017,       373,    100095,    100093,       372
     10018,       363,    100092,    100095,       373
     10019,    100075,    100089,    100097,    100074
     10020,    100074,    100097,    100098,    100073
     10021,    100073,    100098,    100093,    100072
     10022,       374,    100097,    100089,       344
     10023,       372,    100093,    100098,       375
     10024,       375,    100098,    100097,       374
     10025,    100067,    100101,    100103,    100066
     10026,    100066,    100103,    100088,    100065
     10027,       385,    100103,    100101,       384
     10028,       153,    100088,    100103,       385
     10029,    100068,    100105,    100101,    100067
     10030,    100105,       386,       384,    100101
     10031,    100070,    100092,    100107,    100069
     10032,    100069,    100107,    100105,    100068
     10033,       387,    100107,    100092,       363
     10034,       386,    100105,    100107,       387
** ... 300 like lines cut
**HWCOLOR COMP          1    18
*ELEMENT,TYPE=CPS4R,ELSET=SHELL-L
         1,       196,       199,       200,       195
         2,       195,       200,       191,       192
         3,       199,       184,       185,       200
         4,       200,       185,       186,       191
         5,       197,       201,       199,       196
         6,       201,       183,       184,       199
         7,       175,       176,       202,       198
         8,       198,       202,       201,       197
         9,       176,       177,       182,       202
        10,       202,       182,       183,       201
        11,       160,       203,       205,       159
        12,       159,       205,       194,       158
        13,       195,       206,       204,       196
        14,       206,       205,       203,       204
        15,       192,       193,       206,       195
        16,       193,       194,       205,       206
        17,       163,       173,       207,       162
        18,       162,       207,       208,       161
        19,       161,       208,       203,       160
        20,       198,       209,       174,       175
** ... 1420 like lines cut
**HWCOLOR COMP          2    21
*ELEMENT,TYPE=CPS4R,ELSET=SHELL-U
      1441,      1734,      1737,      1738,      1733
      1442,      1733,      1738,      1729,      1730
      1443,      1737,      1722,      1723,      1738
      1444,      1738,      1723,      1724,      1729
      1445,      1735,      1739,      1737,      1734
      1446,      1739,      1721,      1722,      1737
      1447,      1714,      1715,      1740,      1736
      1448,      1736,      1740,      1739,      1735
      1449,      1715,      1716,      1720,      1740
      1450,      1740,      1720,      1721,      1739
      1451,      1699,      1741,      1743,      1698
      1452,      1698,      1743,      1732,      1697
      1453,      1733,      1744,      1742,      1734
      1454,      1744,      1743,      1741,      1742
      1455,      1730,      1731,      1744,      1733
      1456,      1731,      1732,      1743,      1744
      1457,      1702,      1712,      1745,      1701
      1458,      1701,      1745,      1746,      1700
      1459,      1700,      1746,      1741,      1699
      1460,      1736,      1747,      1713,      1714
** ... 1420 like lines cut
**HM_comp_by_property "nondesign"     5
*SOLID SECTION, ELSET=nondesign, MATERIAL=MP
100.0           ,
**HM_comp_by_property "SHELL-L"     5
*SOLID SECTION, ELSET=SHELL-L, MATERIAL=MP
100.0           ,
**HM_comp_by_property "SHELL-U"     4
*SOLID SECTION, ELSET=SHELL-U, MATERIAL=MP
100.0           ,
*SOLID SECTION, ELSET=Set-TEM1600, MATERIAL=
100.0           ,
**HMNAME BEAMSECTCOL          1    auto1
**HM_FORMULA_SET
*ELSET, ELSET=AUTO1, GENERATE
         1,      1600,         1
*NSET, NSET=Set-SPC
** Section: sec_1
** Section: sec_2
** Section: sec_3
** Section: sec_4
** Section: sec_5
** Section: sec_6
** Section: sec_7
** Section: sec_8
** Section: sec_9
** Section: sec_10
** Section: sec_11
** Section: sec_12
** Section: sec_13
** Section: sec_14
** Section: sec_15
** Section: sec_16
** Section: sec_17
** Section: sec_18
** Section: sec_19
** Section: sec_20
** ... 1580 like lines cut
**  
**
** ASSEMBLY
**
**  
**  
**HM_FORMULA_SET
*NSET, NSET=Set-F, GENERATE
        81,       101,         1
*MATERIAL, NAME=MP
*ELASTIC, TYPE = ISOTROPIC
210000.0  ,0.3       ,0.0       
**HM_comp_by_property "BOLTY"     5
*SPRING, ELSET=BOLT_D2
    2,    2
1000000.0 , 
**HMNAME LOADSTEP          1 load
*STEP, NLGEOM = YES
*STATIC
**HWNAME LOADCOL          1 FORCE
**HWCOLOR LOADCOL          1     5
*BOUNDARY
    100252,1,6,0.0
    100251,1,6,0.0
      1558,1,6,0.0
      1557,1,6,0.0
      1556,1,6,0.0
      1555,1,6,0.0
      1554,1,6,0.0
      1553,1,6,0.0
      1552,1,6,0.0
      1551,1,6,0.0
      1550,1,6,0.0
      1549,1,6,0.0
      1548,1,6,0.0
      1547,1,6,0.0
      1546,1,6,0.0
      1545,1,6,0.0
      1544,1,6,0.0
      1543,1,6,0.0
      1542,1,6,0.0
      1541,1,6,0.0
** ... 22 like lines cut
*CLOAD
        99,2,50000.0        
*END STEP
